Version 4
SHEET 1 1428 680
WIRE 608 112 368 112
WIRE 736 112 736 64
WIRE 736 112 608 112
WIRE 864 112 736 112
WIRE 1024 112 864 112
WIRE 608 144 608 112
WIRE 368 176 368 112
WIRE 864 176 864 112
WIRE 800 224 736 224
WIRE 608 256 608 224
WIRE 1024 256 1024 112
WIRE 208 304 144 304
WIRE 320 304 272 304
WIRE 368 304 368 256
WIRE 368 304 320 304
WIRE 544 304 368 304
WIRE 864 304 864 272
WIRE 960 304 864 304
WIRE 144 352 144 304
WIRE 368 352 368 304
WIRE 608 368 608 352
WIRE 736 368 736 224
WIRE 736 368 608 368
WIRE 608 384 608 368
WIRE 816 400 816 336
WIRE 1024 400 1024 352
WIRE 1072 400 1024 400
WIRE 1136 400 1072 400
WIRE 1248 400 1200 400
WIRE 1072 432 1072 400
WIRE 1248 432 1248 400
WIRE 144 528 144 432
WIRE 368 528 368 432
WIRE 608 528 608 464
WIRE 816 528 816 480
WIRE 1072 528 1072 512
WIRE 1248 528 1248 512
FLAG 144 528 0
FLAG 368 528 0
FLAG 608 528 0
FLAG 1072 528 0
FLAG 1248 528 0
FLAG 736 64 Vcc
FLAG 816 336 Vcc
FLAG 816 528 0
FLAG 320 304 Vin
FLAG 1248 400 Vout
SYMBOL voltage 144 336 R0
WINDOW 123 24 124 Left 2
WINDOW 39 0 0 Left 0
SYMATTR Value2 AC 25m
SYMATTR InstName V1
SYMATTR Value SINE(2.5 25m 1k)
SYMBOL cap 272 288 R90
WINDOW 0 0 32 VBottom 2
WINDOW 3 32 32 VTop 2
SYMATTR InstName C1
SYMATTR Value 100µ
SYMBOL res 352 160 R0
SYMATTR InstName RB1
SYMATTR Value 220k
SYMBOL res 352 336 R0
SYMATTR InstName RB2
SYMATTR Value 1Meg
SYMBOL res 592 128 R0
SYMATTR InstName RE1
SYMATTR Value 680
SYMBOL res 592 368 R0
SYMATTR InstName RC1
SYMATTR Value 22k
SYMBOL npn 800 176 R0
SYMATTR InstName Q2
SYMATTR Value 2N2222
SYMBOL npn 960 256 R0
SYMATTR InstName Q3
SYMATTR Value 2N2222
SYMBOL cap 1200 384 R90
WINDOW 0 0 32 VBottom 2
WINDOW 3 32 32 VTop 2
SYMATTR InstName C2
SYMATTR Value 100µ
SYMBOL res 1056 416 R0
SYMATTR InstName RE3
SYMATTR Value 22
SYMBOL res 1232 416 R0
SYMATTR InstName RL
SYMATTR Value 8
SYMBOL Misc\\battery 816 384 R0
WINDOW 123 0 0 Left 0
WINDOW 39 0 0 Left 0
SYMATTR InstName Battery
SYMATTR Value 5
SYMBOL pnp 544 352 M180
WINDOW 0 43 63 Left 2
WINDOW 3 42 31 Left 2
SYMATTR InstName Q1
SYMATTR Value 2N3906
TEXT 112 568 Left 2 !.ac dec 1k 500 5k
